*SPEF "ieee 1481-1999"
*DESIGN "stdp"
*DATE "11:11:11 Fri 11 11, 1111"
*VENDOR "OpenRCX"
*PROGRAM "Parallel Extraction"
*VERSION "1.0"
*DESIGN_FLOW "NAME_SCOPE LOCAL" "PIN_CAP NONE"
*DIVIDER /
*DELIMITER :
*BUS_DELIMITER []
*T_UNIT 1 NS
*C_UNIT 1 PF
*R_UNIT 1 OHM
*L_UNIT 1 HENRY

*NAME_MAP
*3 clk
*4 spk_post
*5 spk_pre
*6 time_step[0]
*7 time_step[1]
*8 time_step[2]
*9 time_step[3]
*10 time_step[4]
*11 time_step[5]
*12 time_step[6]
*13 time_step[7]
*14 weight_after[0]
*15 weight_after[1]
*16 weight_after[2]
*17 weight_after[3]
*18 weight_after[4]
*19 weight_after[5]
*20 weight_after[6]
*21 weight_after[7]
*22 weight_before[0]
*23 weight_before[1]
*24 weight_before[2]
*25 weight_before[3]
*26 weight_before[4]
*27 weight_before[5]
*28 weight_before[6]
*29 weight_before[7]
*30 _000_
*31 _001_
*32 _002_
*33 _003_
*34 _004_
*35 _005_
*36 _006_
*37 _007_
*38 _008_
*39 _009_
*40 _010_
*41 _011_
*42 _012_
*43 _013_
*44 _014_
*45 _015_
*46 _016_
*47 _017_
*48 _018_
*49 _019_
*50 _020_
*51 _021_
*52 _022_
*53 _023_
*54 _024_
*55 _025_
*56 _026_
*57 _027_
*58 _028_
*59 _029_
*60 _030_
*61 _031_
*62 _032_
*63 _033_
*64 _034_
*65 _035_
*66 _036_
*67 _037_
*68 _038_
*69 _039_
*70 _040_
*71 _041_
*72 _042_
*73 _043_
*74 _044_
*75 _045_
*76 _046_
*77 _047_
*78 _048_
*79 _049_
*80 _050_
*81 _051_
*82 _052_
*83 _053_
*84 _054_
*85 _055_
*86 _056_
*87 _057_
*88 _058_
*89 _059_
*90 _060_
*91 _061_
*92 _062_
*93 _063_
*94 _064_
*95 _065_
*96 _066_
*97 _067_
*98 _068_
*99 _069_
*100 _070_
*101 _071_
*102 _072_
*103 _073_
*104 _074_
*105 _075_
*106 _076_
*107 _077_
*108 _078_
*109 _079_
*110 _080_
*111 _081_
*112 _082_
*113 _083_
*114 _084_
*115 _085_
*116 _086_
*117 _087_
*118 _088_
*119 _089_
*120 _090_
*121 _091_
*122 _092_
*123 _093_
*124 _094_
*125 _095_
*126 _096_
*127 clknet_0_clk
*128 clknet_1_0__leaf_clk
*129 clknet_1_1__leaf_clk
*130 net1
*131 net10
*132 net11
*133 net12
*134 net13
*135 net14
*136 net15
*137 net16
*138 net17
*139 net18
*140 net19
*141 net2
*142 net20
*143 net21
*144 net22
*145 net23
*146 net24
*147 net25
*148 net26
*149 net27
*150 net28
*151 net29
*152 net3
*153 net30
*154 net31
*155 net32
*156 net33
*157 net34
*158 net35
*159 net36
*160 net37
*161 net38
*162 net39
*163 net4
*164 net40
*165 net41
*166 net42
*167 net43
*168 net44
*169 net45
*170 net46
*171 net47
*172 net48
*173 net5
*174 net6
*175 net7
*176 net8
*177 net9
*178 spks_cnt\[0\]
*179 spks_cnt\[1\]
*180 time_step_post\[0\]
*181 time_step_post\[1\]
*182 time_step_post\[2\]
*183 time_step_post\[3\]
*184 time_step_post\[4\]
*185 time_step_post\[5\]
*186 time_step_post\[6\]
*187 time_step_post\[7\]
*188 time_step_pre\[0\]
*189 time_step_pre\[1\]
*190 time_step_pre\[2\]
*191 time_step_pre\[3\]
*192 time_step_pre\[4\]
*193 time_step_pre\[5\]
*194 time_step_pre\[6\]
*195 time_step_pre\[7\]
*196 FILLER_0_0_108
*197 FILLER_0_0_14
*198 FILLER_0_0_18
*199 FILLER_0_0_3
*200 FILLER_0_0_54
*201 FILLER_0_0_7
*202 FILLER_0_0_85
*203 FILLER_0_10_105
*204 FILLER_0_10_15
*205 FILLER_0_10_27
*206 FILLER_0_10_29
*207 FILLER_0_10_3
*208 FILLER_0_10_83
*209 FILLER_0_10_85
*210 FILLER_0_11_101
*211 FILLER_0_11_22
*212 FILLER_0_11_28
*213 FILLER_0_11_43
*214 FILLER_0_11_52
*215 FILLER_0_11_73
*216 FILLER_0_11_81
*217 FILLER_0_12_109
*218 FILLER_0_12_23
*219 FILLER_0_12_27
*220 FILLER_0_12_29
*221 FILLER_0_12_3
*222 FILLER_0_12_43
*223 FILLER_0_12_64
*224 FILLER_0_12_85
*225 FILLER_0_13_106
*226 FILLER_0_13_3
*227 FILLER_0_13_44
*228 FILLER_0_13_63
*229 FILLER_0_13_74
*230 FILLER_0_13_86
*231 FILLER_0_14_101
*232 FILLER_0_14_15
*233 FILLER_0_14_19
*234 FILLER_0_14_3
*235 FILLER_0_14_37
*236 FILLER_0_14_45
*237 FILLER_0_14_55
*238 FILLER_0_14_61
*239 FILLER_0_14_78
*240 FILLER_0_14_85
*241 FILLER_0_14_97
*242 FILLER_0_15_109
*243 FILLER_0_15_17
*244 FILLER_0_15_28
*245 FILLER_0_15_6
*246 FILLER_0_15_78
*247 FILLER_0_15_86
*248 FILLER_0_16_3
*249 FILLER_0_17_109
*250 FILLER_0_17_3
*251 FILLER_0_17_30
*252 FILLER_0_17_34
*253 FILLER_0_17_52
*254 FILLER_0_17_57
*255 FILLER_0_17_77
*256 FILLER_0_17_85
*257 FILLER_0_18_20
*258 FILLER_0_18_43
*259 FILLER_0_18_49
*260 FILLER_0_18_55
*261 FILLER_0_18_57
*262 FILLER_0_18_61
*263 FILLER_0_18_65
*264 FILLER_0_18_76
*265 FILLER_0_18_85
*266 FILLER_0_18_9
*267 FILLER_0_18_93
*268 FILLER_0_18_97
*269 FILLER_0_1_107
*270 FILLER_0_1_12
*271 FILLER_0_1_38
*272 FILLER_0_1_57
*273 FILLER_0_1_86
*274 FILLER_0_1_98
*275 FILLER_0_2_104
*276 FILLER_0_2_15
*277 FILLER_0_2_26
*278 FILLER_0_2_29
*279 FILLER_0_2_3
*280 FILLER_0_2_41
*281 FILLER_0_2_49
*282 FILLER_0_2_63
*283 FILLER_0_2_78
*284 FILLER_0_3_107
*285 FILLER_0_3_3
*286 FILLER_0_3_31
*287 FILLER_0_3_43
*288 FILLER_0_3_52
*289 FILLER_0_3_87
*290 FILLER_0_3_99
*291 FILLER_0_4_109
*292 FILLER_0_4_22
*293 FILLER_0_4_36
*294 FILLER_0_4_42
*295 FILLER_0_4_58
*296 FILLER_0_4_79
*297 FILLER_0_4_83
*298 FILLER_0_4_85
*299 FILLER_0_4_97
*300 FILLER_0_5_107
*301 FILLER_0_5_11
*302 FILLER_0_5_21
*303 FILLER_0_5_3
*304 FILLER_0_5_33
*305 FILLER_0_5_39
*306 FILLER_0_5_54
*307 FILLER_0_5_57
*308 FILLER_0_5_65
*309 FILLER_0_5_77
*310 FILLER_0_5_85
*311 FILLER_0_5_99
*312 FILLER_0_6_100
*313 FILLER_0_6_21
*314 FILLER_0_6_27
*315 FILLER_0_6_29
*316 FILLER_0_6_41
*317 FILLER_0_6_47
*318 FILLER_0_6_59
*319 FILLER_0_6_67
*320 FILLER_0_6_73
*321 FILLER_0_6_81
*322 FILLER_0_6_85
*323 FILLER_0_6_9
*324 FILLER_0_7_101
*325 FILLER_0_7_109
*326 FILLER_0_7_31
*327 FILLER_0_7_50
*328 FILLER_0_7_57
*329 FILLER_0_7_63
*330 FILLER_0_8_23
*331 FILLER_0_8_27
*332 FILLER_0_8_3
*333 FILLER_0_8_37
*334 FILLER_0_8_46
*335 FILLER_0_8_55
*336 FILLER_0_8_66
*337 FILLER_0_9_108
*338 FILLER_0_9_13
*339 FILLER_0_9_3
*340 FILLER_0_9_40
*341 FILLER_0_9_48
*342 FILLER_0_9_80
*343 FILLER_0_9_9
*344 FILLER_0_9_93
*345 PHY_EDGE_ROW_0_Left_19
*346 PHY_EDGE_ROW_0_Right_0
*347 PHY_EDGE_ROW_10_Left_29
*348 PHY_EDGE_ROW_10_Right_10
*349 PHY_EDGE_ROW_11_Left_30
*350 PHY_EDGE_ROW_11_Right_11
*351 PHY_EDGE_ROW_12_Left_31
*352 PHY_EDGE_ROW_12_Right_12
*353 PHY_EDGE_ROW_13_Left_32
*354 PHY_EDGE_ROW_13_Right_13
*355 PHY_EDGE_ROW_14_Left_33
*356 PHY_EDGE_ROW_14_Right_14
*357 PHY_EDGE_ROW_15_Left_34
*358 PHY_EDGE_ROW_15_Right_15
*359 PHY_EDGE_ROW_16_Left_35
*360 PHY_EDGE_ROW_16_Right_16
*361 PHY_EDGE_ROW_17_Left_36
*362 PHY_EDGE_ROW_17_Right_17
*363 PHY_EDGE_ROW_18_Left_37
*364 PHY_EDGE_ROW_18_Right_18
*365 PHY_EDGE_ROW_1_Left_20
*366 PHY_EDGE_ROW_1_Right_1
*367 PHY_EDGE_ROW_2_Left_21
*368 PHY_EDGE_ROW_2_Right_2
*369 PHY_EDGE_ROW_3_Left_22
*370 PHY_EDGE_ROW_3_Right_3
*371 PHY_EDGE_ROW_4_Left_23
*372 PHY_EDGE_ROW_4_Right_4
*373 PHY_EDGE_ROW_5_Left_24
*374 PHY_EDGE_ROW_5_Right_5
*375 PHY_EDGE_ROW_6_Left_25
*376 PHY_EDGE_ROW_6_Right_6
*377 PHY_EDGE_ROW_7_Left_26
*378 PHY_EDGE_ROW_7_Right_7
*379 PHY_EDGE_ROW_8_Left_27
*380 PHY_EDGE_ROW_8_Right_8
*381 PHY_EDGE_ROW_9_Left_28
*382 PHY_EDGE_ROW_9_Right_9
*383 TAP_TAPCELL_ROW_0_38
*384 TAP_TAPCELL_ROW_0_39
*385 TAP_TAPCELL_ROW_0_40
*386 TAP_TAPCELL_ROW_10_54
*387 TAP_TAPCELL_ROW_10_55
*388 TAP_TAPCELL_ROW_11_56
*389 TAP_TAPCELL_ROW_12_57
*390 TAP_TAPCELL_ROW_12_58
*391 TAP_TAPCELL_ROW_13_59
*392 TAP_TAPCELL_ROW_14_60
*393 TAP_TAPCELL_ROW_14_61
*394 TAP_TAPCELL_ROW_15_62
*395 TAP_TAPCELL_ROW_16_63
*396 TAP_TAPCELL_ROW_16_64
*397 TAP_TAPCELL_ROW_17_65
*398 TAP_TAPCELL_ROW_18_66
*399 TAP_TAPCELL_ROW_18_67
*400 TAP_TAPCELL_ROW_18_68
*401 TAP_TAPCELL_ROW_1_41
*402 TAP_TAPCELL_ROW_2_42
*403 TAP_TAPCELL_ROW_2_43
*404 TAP_TAPCELL_ROW_3_44
*405 TAP_TAPCELL_ROW_4_45
*406 TAP_TAPCELL_ROW_4_46
*407 TAP_TAPCELL_ROW_5_47
*408 TAP_TAPCELL_ROW_6_48
*409 TAP_TAPCELL_ROW_6_49
*410 TAP_TAPCELL_ROW_7_50
*411 TAP_TAPCELL_ROW_8_51
*412 TAP_TAPCELL_ROW_8_52
*413 TAP_TAPCELL_ROW_9_53
*414 _097_
*415 _098_
*416 _099_
*417 _100_
*418 _101_
*419 _102_
*420 _103_
*421 _104_
*422 _105_
*423 _106_
*424 _107_
*425 _108_
*426 _109_
*427 _110_
*428 _111_
*429 _112_
*430 _113_
*431 _114_
*432 _115_
*433 _116_
*434 _117_
*435 _118_
*436 _119_
*437 _120_
*438 _121_
*439 _122_
*440 _123_
*441 _124_
*442 _125_
*443 _126_
*444 _127_
*445 _128_
*446 _129_
*447 _130_
*448 _131_
*449 _132_
*450 _133_
*451 _134_
*452 _135_
*453 _136_
*454 _137_
*455 _138_
*456 _139_
*457 _140_
*458 _141_
*459 _142_
*460 _143_
*461 _144_
*462 _145_
*463 _146_
*464 _147_
*465 _148_
*466 _149_
*467 _150_
*468 _151_
*469 _152_
*470 _153_
*471 _154_
*472 _155_
*473 _156_
*474 _157_
*475 _158_
*476 _159_
*477 _160_
*478 _161_
*479 _162_
*480 _163_
*481 _164_
*482 _165_
*483 _166_
*484 _167_
*485 _168_
*486 _169_
*487 _170_
*488 _171_
*489 _172_
*490 _173_
*491 _174_
*492 _175_
*493 _176_
*494 _177_
*495 _178_
*496 _179_
*497 _180_
*498 _181_
*499 _182_
*500 _183_
*501 _184_
*502 _185_
*503 _186_
*504 _187_
*505 _188_
*506 _189_
*507 _190_
*508 _191_
*509 _192_
*510 _193_
*511 _194_
*512 _195_
*513 _196_
*514 _197_
*515 _198_
*516 _199_
*517 _200_
*518 _201_
*519 _202_
*520 _203_
*521 _204_
*522 _205_
*523 _206_
*524 _207_
*525 _208_
*526 _209_
*527 _210_
*528 _211_
*529 _212_
*530 _213_
*531 _214_
*532 _215_
*533 _216_
*534 _217_
*535 _218_
*536 _219_
*537 clkbuf_0_clk
*538 clkbuf_1_0__f_clk
*539 clkbuf_1_1__f_clk
*540 hold1
*541 hold10
*542 hold11
*543 hold12
*544 hold13
*545 hold14
*546 hold15
*547 hold16
*548 hold17
*549 hold18
*550 hold19
*551 hold2
*552 hold20
*553 hold21
*554 hold22
*555 hold3
*556 hold4
*557 hold5
*558 hold6
*559 hold7
*560 hold8
*561 hold9
*562 input1
*563 input10
*564 input11
*565 input12
*566 input13
*567 input14
*568 input15
*569 input16
*570 input17
*571 input18
*572 input2
*573 input3
*574 input4
*575 input5
*576 input6
*577 input7
*578 input8
*579 input9
*580 output19
*581 output20
*582 output21
*583 output22
*584 output23
*585 output24
*586 output25
*587 output26

*PORTS
clk I
spk_post I
spk_pre I
time_step[0] I
time_step[1] I
time_step[2] I
time_step[3] I
time_step[4] I
time_step[5] I
time_step[6] I
time_step[7] I
weight_after[0] O
weight_after[1] O
weight_after[2] O
weight_after[3] O
weight_after[4] O
weight_after[5] O
weight_after[6] O
weight_after[7] O
weight_before[0] I
weight_before[1] I
weight_before[2] I
weight_before[3] I
weight_before[4] I
weight_before[5] I
weight_before[6] I
weight_before[7] I

*D_NET *3 0.00655927
*CONN
*P clk I
*I *537:A I *D sky130_fd_sc_hd__clkbuf_16
*CAP
1 clk 0.00244779
2 *537:A 0.00012789
3 *3:9 0.00257568
4 *537:A *431:A 5.81185e-05
5 *537:A *431:B 5.47197e-05
6 *537:A *118:12 5.79559e-05
7 *537:A *141:107 0.000295976
8 *3:9 *577:A 0
9 *3:9 *26:15 0
10 *3:9 *92:10 0
11 *3:9 *113:14 0
12 *3:9 *122:80 0.000161414
13 *3:9 *143:14 0.000445474
14 *3:9 *158:8 9.87049e-05
15 *3:9 *167:8 9.86322e-05
16 *3:9 *186:14 0.000136905
*RES
1 clk *3:9 45.1172 
2 *3:9 *537:A 42.4536 
*END

*D_NET *4 0.00064126
*CONN
*P spk_post I
*I *562:A I *D sky130_fd_sc_hd__clkbuf_4
*CAP
1 spk_post 0.00032063
2 *562:A 0.00032063
*RES
1 spk_post *562:A 49.7006 
*END

*D_NET *5 0.00213104
*CONN
*P spk_pre I
*I *572:A I *D sky130_fd_sc_hd__clkbuf_4
*CAP
1 spk_pre 0.000694377
2 *572:A 0.00017743
3 *5:19 0.000871807
4 *572:A *26:15 0.000387422
*RES
1 spk_pre *5:19 46.0329 
2 *5:19 *572:A 43.075 
*END

*D_NET *6 0.00066271
*CONN
*P time_step[0] I
*I *573:A I *D sky130_fd_sc_hd__clkbuf_1
*CAP
1 time_step[0] 0.000331355
2 *573:A 0
3 *6:13 0.000331355
4 *6:13 *152:8 0
*RES
1 time_step[0] *6:13 27.9375 
2 *6:13 *573:A 23 
*END

*D_NET *7 0.000708407
*CONN
*P time_step[1] I
*I *574:A I *D sky130_fd_sc_hd__clkbuf_1
*CAP
1 time_step[1] 0.000354203
2 *574:A 0
3 *7:13 0.000354203
4 *7:13 *128:28 0
*RES
1 time_step[1] *7:13 28.2896 
2 *7:13 *574:A 23 
*END

*D_NET *8 0.00135963
*CONN
*P time_step[2] I
*I *575:A I *D sky130_fd_sc_hd__clkbuf_1
*CAP
1 time_step[2] 0.000597218
2 *575:A 0
3 *8:15 0.000597218
4 *8:15 weight_after[1] 5.41385e-05
5 *8:15 *28:15 8.53558e-05
6 *8:15 *138:12 2.56967e-05
*RES
1 time_step[2] *8:15 31.7816 
2 *8:15 *575:A 23 
*END

*D_NET *9 0.00155902
*CONN
*P time_step[3] I
*I *576:A I *D sky130_fd_sc_hd__clkbuf_1
*CAP
1 time_step[3] 0.000603043
2 *576:A 0
3 *9:13 0.000603043
4 *9:13 *13:15 5.79559e-05
5 *9:13 *23:15 0.000237027
6 *9:13 *133:8 5.79559e-05
*RES
1 time_step[3] *9:13 29.0029 
2 *9:13 *576:A 23 
*END

*D_NET *10 0.000932455
*CONN
*P time_step[4] I
*I *577:A I *D sky130_fd_sc_hd__clkbuf_1
*CAP
1 time_step[4] 0.000466227
2 *577:A 0.000466227
3 *577:A *143:14 0
4 *3:9 *577:A 0
*RES
1 time_step[4] *577:A 47.9429 
*END

*D_NET *11 0.00134566
*CONN
*P time_step[5] I
*I *578:A I *D sky130_fd_sc_hd__clkbuf_1
*CAP
1 time_step[5] 0.000672828
2 *578:A 0.000672828
*RES
1 time_step[5] *578:A 49.9746 
*END

*D_NET *12 0.00116079
*CONN
*P time_step[6] I
*I *579:A I *D sky130_fd_sc_hd__buf_1
*CAP
1 time_step[6] 0.000506652
2 *579:A 0.000506652
3 *579:A *133:8 0.000147489
*RES
1 time_step[6] *579:A 49.3307 
*END

*D_NET *13 0.0016408
*CONN
*P time_step[7] I
*I *563:A I *D sky130_fd_sc_hd__clkbuf_1
*CAP
1 time_step[7] 0.000754283
2 *563:A 0
3 *13:15 0.000754283
4 *13:15 *133:8 7.42808e-05
5 *9:13 *13:15 5.79559e-05
*RES
1 time_step[7] *13:15 33.9273 
2 *13:15 *563:A 23 
*END

*D_NET *14 0.000804643
*CONN
*P weight_after[0] O
*I *580:X O *D sky130_fd_sc_hd__clkbuf_4
*CAP
1 weight_after[0] 9.83601e-05
2 *580:X 0.000303962
3 *14:10 0.000402322
4 *14:10 *110:10 0
*RES
1 *580:X *14:10 42.7332 
2 *14:10 weight_after[0] 8.32853 
*END

*D_NET *15 0.00101835
*CONN
*P weight_after[1] O
*I *581:X O *D sky130_fd_sc_hd__clkbuf_4
*CAP
1 weight_after[1] 0.000482105
2 *581:X 0.000482105
3 *8:15 weight_after[1] 5.41385e-05
*RES
1 *581:X weight_after[1] 47.7979 
*END

*D_NET *16 0.00120193
*CONN
*P weight_after[2] O
*I *582:X O *D sky130_fd_sc_hd__clkbuf_4
*CAP
1 weight_after[2] 9.82145e-05
2 *582:X 0.000502749
3 *16:12 0.000600963
*RES
1 *582:X *16:12 47.9325 
2 *16:12 weight_after[2] 2.18536 
*END

*D_NET *17 0.00182455
*CONN
*P weight_after[3] O
*I *583:X O *D sky130_fd_sc_hd__clkbuf_4
*CAP
1 weight_after[3] 0.000480781
2 *583:X 0.000431495
3 *17:8 0.000912276
*RES
1 *583:X *17:8 45.7679 
2 *17:8 weight_after[3] 10.8129 
*END

*D_NET *18 0.000740866
*CONN
*P weight_after[4] O
*I *584:X O *D sky130_fd_sc_hd__clkbuf_4
*CAP
1 weight_after[4] 0.000370433
2 *584:X 0.000370433
*RES
1 *584:X weight_after[4] 45.9957 
*END

*D_NET *19 0.00204196
*CONN
*P weight_after[5] O
*I *585:X O *D sky130_fd_sc_hd__clkbuf_4
*CAP
1 weight_after[5] 0.000397127
2 *585:X 0.000505214
3 *19:12 0.000902342
4 weight_after[5] *28:15 0
5 *19:12 *585:A 6.63159e-06
6 *19:12 *56:12 5.07687e-05
7 *19:12 *142:37 0.000179877
*RES
1 *585:X *19:12 46.1096 
2 *19:12 weight_after[5] 8.64821 
*END

*D_NET *20 0.00166554
*CONN
*P weight_after[6] O
*I *586:X O *D sky130_fd_sc_hd__clkbuf_4
*CAP
1 weight_after[6] 0.000555549
2 *586:X 0.000148106
3 *20:12 0.000703655
4 *20:12 *493:A1 0.000100061
5 *20:12 *586:A 8.68289e-05
6 *20:12 *99:14 7.13409e-05
*RES
1 *586:X *20:12 48.5996 
2 *20:12 weight_after[6] 1.4448 
*END

*D_NET *21 0.00126818
*CONN
*P weight_after[7] O
*I *587:X O *D sky130_fd_sc_hd__clkbuf_4
*CAP
1 weight_after[7] 0.000528998
2 *587:X 0.000528998
3 weight_after[7] *587:A 0.000185428
4 weight_after[7] *47:8 2.4754e-05
*RES
1 *587:X weight_after[7] 48.5229 
*END

*D_NET *22 0.000567102
*CONN
*P weight_before[0] I
*I *564:A I *D sky130_fd_sc_hd__clkbuf_1
*CAP
1 weight_before[0] 0.000283551
2 *564:A 0.000283551
*RES
1 weight_before[0] *564:A 49.2626 
*END

*D_NET *23 0.000985305
*CONN
*P weight_before[1] I
*I *565:A I *D sky130_fd_sc_hd__clkbuf_1
*CAP
1 weight_before[1] 0.000374139
2 *565:A 0
3 *23:15 0.000374139
4 *9:13 *23:15 0.000237027
*RES
1 weight_before[1] *23:15 29.2248 
2 *23:15 *565:A 23 
*END

*D_NET *24 0.000952224
*CONN
*P weight_before[2] I
*I *566:A I *D sky130_fd_sc_hd__clkbuf_1
*CAP
1 weight_before[2] 0.000476112
2 *566:A 0.000476112
*RES
1 weight_before[2] *566:A 48.5229 
*END

*D_NET *25 0.00095333
*CONN
*P weight_before[3] I
*I *567:A I *D sky130_fd_sc_hd__clkbuf_1
*CAP
1 weight_before[3] 0.000476665
2 *567:A 0.000476665
*RES
1 weight_before[3] *567:A 48.5229 
*END

*D_NET *26 0.0018918
*CONN
*P weight_before[4] I
*I *568:A I *D sky130_fd_sc_hd__clkbuf_1
*CAP
1 weight_before[4] 0.000516468
2 *568:A 0
3 *26:15 0.000516468
4 *26:15 *493:A1 0.000153736
5 *26:15 *136:10 0.000317711
6 *26:15 *143:14 0
7 *572:A *26:15 0.000387422
8 *3:9 *26:15 0
*RES
1 weight_before[4] *26:15 29.5207 
2 *26:15 *568:A 23 
*END

*D_NET *27 0.00058111
*CONN
*P weight_before[5] I
*I *569:A I *D sky130_fd_sc_hd__clkbuf_1
*CAP
1 weight_before[5] 0.000290555
2 *569:A 0.000290555
3 *569:A *138:18 0
*RES
1 weight_before[5] *569:A 48.1354 
*END

*D_NET *28 0.00254165
*CONN
*P weight_before[6] I
*I *570:A I *D sky130_fd_sc_hd__buf_1
*CAP
1 weight_before[6] 0.00117687
2 *570:A 0
3 *28:15 0.00117687
4 *28:15 *138:12 0.000102551
5 weight_after[5] *28:15 0
6 *8:15 *28:15 8.53558e-05
*RES
1 weight_before[6] *28:15 39.1834 
2 *28:15 *570:A 23 
*END

*D_NET *29 0.000819654
*CONN
*P weight_before[7] I
*I *571:A I *D sky130_fd_sc_hd__clkbuf_1
*CAP
1 weight_before[7] 0.000409827
2 *571:A 0
3 *29:15 0.000409827
4 *29:15 *139:8 0
*RES
1 weight_before[7] *29:15 28.3785 
2 *29:15 *571:A 23 
*END

*D_NET *30 0.000328159
*CONN
*I *511:D I *D sky130_fd_sc_hd__dfxtp_1
*I *415:X O *D sky130_fd_sc_hd__clkbuf_1
*CAP
1 *511:D 0.000143378
2 *415:X 0.000143378
3 *511:D *415:A 1.35999e-05
4 *511:D *129:135 2.7803e-05
*RES
1 *415:X *511:D 48.3873 
*END

*D_NET *31 0.000402062
*CONN
*I *512:D I *D sky130_fd_sc_hd__dfxtp_1
*I *417:X O *D sky130_fd_sc_hd__clkbuf_1
*CAP
1 *512:D 0.000160116
2 *417:X 0.000160116
3 *512:D *417:A 1.24376e-05
4 *512:D *512:CLK 5.5792e-05
5 *512:D *128:71 1.35999e-05
*RES
1 *417:X *512:D 49.2936 
*END

*D_NET *32 0.00142742
*CONN
*I *513:D I *D sky130_fd_sc_hd__dfxtp_1
*I *419:X O *D sky130_fd_sc_hd__clkbuf_1
*CAP
1 *513:D 4.77999e-05
2 *419:X 0.000389076
3 *32:10 0.000436875
4 *513:D *84:12 2.89979e-05
5 *513:D *122:99 1.97006e-05
6 *32:10 *513:CLK 8.34176e-05
7 *32:10 *111:14 2.83509e-05
8 *32:10 *129:101 2.90581e-05
9 *32:10 *129:118 0.000121803
10 *32:10 *146:22 0.00024234
*RES
1 *419:X *32:10 44.7943 
2 *32:10 *513:D 39.4759 
*END

*D_NET *33 0.000385443
*CONN
*I *514:D I *D sky130_fd_sc_hd__dfxtp_1
*I *421:X O *D sky130_fd_sc_hd__clkbuf_1
*CAP
1 *514:D 4.47822e-05
2 *421:X 0.000119848
3 *33:8 0.00016463
4 *514:D *456:A_N 3.11218e-05
5 *33:8 *191:21 2.50612e-05
*RES
1 *421:X *33:8 40.2579 
2 *33:8 *514:D 38.9943 
*END

*D_NET *34 0.00101787
*CONN
*I *515:D I *D sky130_fd_sc_hd__dfxtp_1
*I *423:X O *D sky130_fd_sc_hd__clkbuf_1
*CAP
1 *515:D 0.000155656
2 *423:X 0.000143127
3 *34:10 0.000298783
4 *515:D *515:CLK 3.60814e-05
5 *515:D *113:14 2.64616e-05
6 *515:D *128:122 8.77828e-05
7 *515:D *141:69 9.77405e-05
8 *515:D *175:28 9.77922e-06
9 *34:10 *493:A1 5.56356e-05
10 *34:10 *113:14 8.29264e-05
11 *34:10 *141:69 2.39018e-05
*RES
1 *423:X *34:10 40.5271 
2 *34:10 *515:D 41.5421 
*END

*D_NET *35 0.000375242
*CONN
*I *516:D I *D sky130_fd_sc_hd__dfxtp_1
*I *425:X O *D sky130_fd_sc_hd__clkbuf_1
*CAP
1 *516:D 0.000150191
2 *425:X 0.000150191
3 *516:D *506:A 1.92324e-05
4 *516:D *128:28 5.56279e-05
*RES
1 *425:X *516:D 48.7964 
*END

*D_NET *36 0.00062384
*CONN
*I *517:D I *D sky130_fd_sc_hd__dfxtp_1
*I *427:X O *D sky130_fd_sc_hd__clkbuf_1
*CAP
1 *517:D 1.58638e-05
2 *427:X 0.000210653
3 *36:10 0.000226517
4 *36:10 *144:22 0.000170807
*RES
1 *427:X *36:10 41.8321 
2 *36:10 *517:D 38.1916 
*END

*D_NET *37 0.000303475
*CONN
*I *518:D I *D sky130_fd_sc_hd__dfxtp_1
*I *429:X O *D sky130_fd_sc_hd__clkbuf_1
*CAP
1 *518:D 1.01257e-05
2 *429:X 7.0886e-05
3 *37:8 8.10117e-05
4 *518:D *510:A 1.79713e-05
5 *37:8 *556:A 1.0092e-05
6 *37:8 *143:14 0.000113389
*RES
1 *429:X *37:8 39.5536 
2 *37:8 *518:D 38.1916 
*END

*D_NET *38 0.00235606
*CONN
*I *519:D I *D sky130_fd_sc_hd__dfxtp_1
*I *433:X O *D sky130_fd_sc_hd__clkbuf_1
*CAP
1 *519:D 0
2 *433:X 0.000136885
3 *38:14 0.000796574
4 *38:10 0.000933459
5 *38:10 *430:B 6.60665e-05
6 *38:10 *122:10 0.000138608
7 *38:14 *435:A1 0.000135037
8 *38:14 *435:B1 2.32101e-05
9 *38:14 *39:10 8.2832e-05
10 *38:14 *178:8 4.33845e-05
*RES
1 *433:X *38:10 41.1071 
2 *38:10 *38:14 28.0552 
3 *38:14 *519:D 23 
*END

*D_NET *39 0.00256407
*CONN
*I *520:D I *D sky130_fd_sc_hd__dfxtp_1
*I *435:X O *D sky130_fd_sc_hd__o21a_1
*CAP
1 *520:D 0.000198466
2 *435:X 0.000358146
3 *39:10 0.000556611
4 *520:D *432:S 2.96051e-05
5 *520:D *60:16 7.08491e-05
6 *520:D *60:22 1.0092e-05
7 *520:D *141:120 6.75188e-05
8 *520:D *178:19 8.10584e-05
9 *39:10 *435:A2 0.000321606
10 *39:10 *435:B1 0.000572649
11 *39:10 *127:22 3.18142e-05
12 *39:10 *129:10 0.000182826
13 *38:14 *39:10 8.2832e-05
*RES
1 *435:X *39:10 48.1707 
2 *39:10 *520:D 42.0962 
*END

*D_NET *40 0.000809769
*CONN
*I *521:D I *D sky130_fd_sc_hd__dfxtp_1
*I *441:X O *D sky130_fd_sc_hd__o21ba_1
*CAP
1 *521:D 2.6944e-05
2 *441:X 0.000216044
3 *40:10 0.000242988
4 *521:D *128:84 8.91085e-05
5 *521:D *140:12 3.197e-05
6 *40:10 *553:A 3.7122e-06
7 *40:10 *127:22 6.12479e-05
8 *40:10 *137:28 0.000137754
*RES
1 *441:X *40:10 41.48 
2 *40:10 *521:D 38.9943 
*END

*D_NET *41 0.000527244
*CONN
*I *522:D I *D sky130_fd_sc_hd__dfxtp_1
*I *446:X O *D sky130_fd_sc_hd__clkbuf_1
*CAP
1 *522:D 8.74387e-05
2 *446:X 5.62262e-05
3 *41:8 0.000143665
4 *522:D *142:18 0.000152028
5 *41:8 *138:12 8.78864e-05
*RES
1 *446:X *41:8 39.2014 
2 *41:8 *522:D 40.118 
*END

*D_NET *42 0.000837313
*CONN
*I *523:D I *D sky130_fd_sc_hd__dfxtp_1
*I *453:X O *D sky130_fd_sc_hd__o22a_1
*CAP
1 *523:D 4.47774e-05
2 *453:X 0.000119447
3 *42:8 0.000164224
4 *523:D *129:23 2.48995e-05
5 *523:D *129:29 0.000143129
6 *523:D *179:31 0.000176445
7 *42:8 *144:22 0.000164392
*RES
1 *453:X *42:8 40.2579 
2 *42:8 *523:D 40.3873 
*END

*D_NET *43 0.000294141
*CONN
*I *524:D I *D sky130_fd_sc_hd__dfxtp_1
*I *462:X O *D sky130_fd_sc_hd__clkbuf_1
*CAP
1 *524:D 6.00968e-05
2 *462:X 6.64099e-05
3 *43:8 0.000126507
4 *43:8 *72:10 4.11274e-05
*RES
1 *462:X *43:8 39.2014 
2 *43:8 *524:D 39.1652 
*END

*D_NET *44 0.00126484
*CONN
*I *525:D I *D sky130_fd_sc_hd__dfxtp_1
*I *471:X O *D sky130_fd_sc_hd__o22a_1
*CAP
1 *525:D 0.000151822
2 *471:X 9.31369e-05
3 *44:8 0.000244959
4 *525:D *525:CLK 1.12796e-05
5 *525:D *128:113 0.000114452
6 *525:D *128:122 0.000247036
7 *525:D *144:32 0.000304503
8 *44:8 *80:10 3.5561e-05
9 *44:8 *144:22 6.2088e-05
*RES
1 *471:X *44:8 39.9057 
2 *44:8 *525:D 44.8771 
*END

*D_NET *45 0.000402991
*CONN
*I *526:D I *D sky130_fd_sc_hd__dfxtp_1
*I *477:X O *D sky130_fd_sc_hd__clkbuf_1
*CAP
1 *526:D 5.53181e-05
2 *477:X 7.68813e-05
3 *45:8 0.000132199
4 *526:D *526:CLK 0.000104407
5 *45:8 *138:18 3.41843e-05
*RES
1 *477:X *45:8 39.5536 
2 *45:8 *526:D 39.1445 
*END

*D_NET *46 0.000390231
*CONN
*I *527:D I *D sky130_fd_sc_hd__dfxtp_1
*I *488:X O *D sky130_fd_sc_hd__clkbuf_1
*CAP
1 *527:D 0.000138503
2 *488:X 0.000138503
3 *527:D *488:A 9.41704e-05
4 *527:D *122:80 1.9054e-05
*RES
1 *488:X *527:D 48.3873 
*END

*D_NET *47 0.000891359
*CONN
*I *528:D I *D sky130_fd_sc_hd__dfxtp_1
*I *494:X O *D sky130_fd_sc_hd__clkbuf_1
*CAP
1 *528:D 0
2 *494:X 0.000167625
3 *47:8 0.000167625
4 *47:8 *584:A 6.72154e-06
5 *47:8 *587:A 0.000264627
6 *47:8 *100:12 0.000260007
7 weight_after[7] *47:8 2.4754e-05
*RES
1 *494:X *47:8 29.1314 
2 *47:8 *528:D 23 
*END

*D_NET *48 0.000670699
*CONN
*I *529:D I *D sky130_fd_sc_hd__dfxtp_1
*I *496:X O *D sky130_fd_sc_hd__clkbuf_1
*CAP
1 *529:D 1.31361e-05
2 *496:X 0.000177406
3 *48:8 0.000190542
4 *529:D *137:16 2.33141e-05
5 *48:8 *109:10 2.34077e-05
6 *48:8 *129:143 9.1405e-05
7 *48:8 *138:18 0.000151487
*RES
1 *496:X *48:8 42.3707 
2 *48:8 *529:D 38.2486 
*END

*D_NET *49 0.000364528
*CONN
*I *530:D I *D sky130_fd_sc_hd__dfxtp_1
*I *498:X O *D sky130_fd_sc_hd__clkbuf_1
*CAP
1 *530:D 1.3026e-05
2 *498:X 8.32216e-05
3 *49:8 9.62476e-05
4 *49:8 *530:CLK 3.50862e-06
5 *49:8 *138:18 0.000168524
*RES
1 *498:X *49:8 40.2579 
2 *49:8 *530:D 38.1916 
*END

*D_NET *50 0.000448181
*CONN
*I *531:D I *D sky130_fd_sc_hd__dfxtp_1
*I *500:X O *D sky130_fd_sc_hd__clkbuf_1
*CAP
1 *531:D 0.000144381
2 *500:X 0.000144381
3 *531:D *111:14 0.000159419
*RES
1 *500:X *531:D 48.5323 
*END

*D_NET *51 0.00150555
*CONN
*I *532:D I *D sky130_fd_sc_hd__dfxtp_1
*I *502:X O *D sky130_fd_sc_hd__clkbuf_1
*CAP
1 *532:D 6.80261e-05
2 *502:X 0.000406193
3 *51:10 0.00047422
4 *532:D *129:66 0.000145282
5 *51:10 *501:A1 8.57485e-05
6 *51:10 *130:147 0.000191409
7 *51:10 *191:36 0.000134676
*RES
1 *502:X *51:10 44.7736 
2 *51:10 *532:D 39.6209 
*END

*D_NET *52 0.000583005
*CONN
*I *533:D I *D sky130_fd_sc_hd__dfxtp_1
*I *504:X O *D sky130_fd_sc_hd__clkbuf_1
*CAP
1 *533:D 1.01257e-05
2 *504:X 0.000175027
3 *52:10 0.000185153
4 *533:D *548:A 1.79713e-05
5 *52:10 *504:A 2.93431e-05
6 *52:10 *105:10 0.000165384
*RES
1 *504:X *52:10 41.5836 
2 *52:10 *533:D 38.1916 
*END

*D_NET *53 0.000250321
*CONN
*I *534:D I *D sky130_fd_sc_hd__dfxtp_1
*I *506:X O *D sky130_fd_sc_hd__clkbuf_1
*CAP
1 *534:D 1.66233e-05
2 *506:X 5.45956e-05
3 *53:8 7.1219e-05
4 *53:8 *106:10 5.27729e-05
5 *53:8 *128:28 5.511e-05
*RES
1 *506:X *53:8 39.5536 
2 *53:8 *534:D 38.1916 
*END

*D_NET *54 0.00194063
*CONN
*I *535:D I *D sky130_fd_sc_hd__dfxtp_1
*I *508:X O *D sky130_fd_sc_hd__clkbuf_1
*CAP
1 *535:D 0.000343
2 *508:X 9.45092e-05
3 *54:8 0.00043751
4 *535:D *507:A1 9.79925e-05
5 *535:D *543:A 0.000314947
6 *535:D *130:24 1.41129e-05
7 *535:D *130:30 0.000490074
8 *54:8 *141:99 7.42423e-05
9 *54:8 *194:14 7.42423e-05
*RES
1 *508:X *54:8 40.2579 
2 *54:8 *535:D 47.2438 
*END

*D_NET *55 0.000869504
*CONN
*I *536:D I *D sky130_fd_sc_hd__dfxtp_1
*I *510:X O *D sky130_fd_sc_hd__clkbuf_1
*CAP
1 *536:D 0.000176952
2 *510:X 8.48102e-05
3 *55:8 0.000261762
4 *536:D *536:CLK 0.000226306
5 *55:8 *431:A 0
6 *55:8 *129:35 6.92905e-05
7 *55:8 *143:14 5.03834e-05
*RES
1 *510:X *55:8 40.2579 
2 *55:8 *536:D 41.8529 
*END

*D_NET *56 0.00311625
*CONN
*I *444:B I *D sky130_fd_sc_hd__or2_1
*I *443:X O *D sky130_fd_sc_hd__xor2_1
*CAP
1 *444:B 0
2 *443:X 0
3 *56:12 0.000733109
4 *56:6 0.000733109
5 *56:12 *544:A 0
6 *56:12 *585:A 0.000100486
7 *56:12 *57:10 0.000236462
8 *56:12 *84:12 0.000270849
9 *56:12 *130:87 0
10 *56:12 *146:22 0.0007607
11 *56:12 *173:26 0.000118372
12 *56:12 *180:28 0.000112396
13 *19:12 *56:12 5.07687e-05
*RES
1 *443:X *56:6 38 
2 *56:6 *56:12 34.9479 
3 *56:12 *444:B 23 
*END

*D_NET *57 0.00229125
*CONN
*I *445:A1 I *D sky130_fd_sc_hd__mux2_1
*I *444:X O *D sky130_fd_sc_hd__or2_1
*CAP
1 *445:A1 0.000261854
2 *444:X 0.000413273
3 *57:10 0.000675128
4 *445:A1 *445:A0 0.000141355
5 *445:A1 *173:18 0.000405649
6 *57:10 *585:A 5.58003e-05
7 *57:10 *133:8 0.000101728
8 *56:12 *57:10 0.000236462
*RES
1 *444:X *57:10 44.5871 
2 *57:10 *445:A1 43.8829 
*END

*D_NET *58 0.00105257
*CONN
*I *446:A I *D sky130_fd_sc_hd__clkbuf_1
*I *445:X O *D sky130_fd_sc_hd__mux2_1
*CAP
1 *446:A 0
2 *445:X 0.000348306
3 *58:10 0.000348306
4 *58:10 *138:12 8.50366e-05
5 *58:10 *142:18 0.000124095
6 *58:10 *142:37 0.000146822
*RES
1 *445:X *58:10 43.8621 
2 *58:10 *446:A 38 
*END

*D_NET *59 0.00125021
*CONN
*I *448:B1 I *D sky130_fd_sc_hd__a21o_1
*I *447:X O *D sky130_fd_sc_hd__and2b_1
*CAP
1 *448:B1 4.93161e-05
2 *447:X 0.000111587
3 *59:8 0.000160903
4 *448:B1 *448:A2 5.3304e-05
5 *448:B1 *60:16 6.17437e-06
6 *448:B1 *137:16 9.41704e-05
7 *59:8 *443:B 8.88793e-05
8 *59:8 *126:8 0.000304263
9 *59:8 *137:28 0.000381608
*RES
1 *447:X *59:8 43.075 
2 *59:8 *448:B1 39.0979 
*END

*D_NET *60 0.00595125
*CONN
*I *450:A I *D sky130_fd_sc_hd__or2_1
*I *468:A1 I *D sky130_fd_sc_hd__a311o_1
*I *451:A I *D sky130_fd_sc_hd__nand2_1
*I *448:X O *D sky130_fd_sc_hd__a21o_1
*CAP
1 *450:A 0.000115068
2 *468:A1 0
3 *451:A 6.52004e-05
4 *448:X 0.000738257
5 *60:41 0.000138707
6 *60:35 0.000340485
7 *60:22 0.00062134
8 *60:16 0.00120769
9 *450:A *450:B 2.75811e-05
10 *450:A *62:10 0.000288292
11 *450:A *63:6 0.000142173
12 *450:A *63:23 0.00017587
13 *451:A *61:8 1.24376e-05
14 *451:A *61:12 4.94041e-05
15 *451:A *61:22 1.9956e-05
16 *60:16 *440:C 1.05344e-05
17 *60:16 *440:D 0.000162849
18 *60:16 *121:16 0.000104097
19 *60:16 *122:8 0.000140927
20 *60:16 *125:10 0.000100061
21 *60:16 *132:28 0.000191598
22 *60:16 *137:16 8.48502e-06
23 *60:22 *436:A_N 0.000202029
24 *60:22 *78:8 0.000184816
25 *60:22 *122:133 3.3523e-05
26 *60:22 *122:147 0.000117254
27 *60:22 *141:120 0
28 *60:22 *178:19 0.000165384
29 *60:22 *179:48 3.93804e-05
30 *60:35 *450:B 1.5769e-05
31 *60:35 *61:12 2.79068e-05
32 *60:35 *61:22 1.28818e-05
33 *60:35 *63:6 0.000178517
34 *60:41 *61:22 0.000187996
35 *60:41 *63:12 9.48381e-06
36 *60:41 *63:23 0
37 *60:41 *67:14 1.44546e-05
38 *60:41 *144:22 1.37349e-05
39 *448:B1 *60:16 6.17437e-06
40 *520:D *60:16 7.08491e-05
41 *520:D *60:22 1.0092e-05
*RES
1 *448:X *60:16 38.2664 
2 *60:16 *60:22 38.5964 
3 *60:22 *451:A 25.0921 
4 *60:22 *60:35 2.52714 
5 *60:35 *60:41 32.9621 
6 *60:41 *468:A1 23 
7 *60:35 *450:A 27.8057 
*END

*D_NET *61 0.00224705
*CONN
*I *451:B I *D sky130_fd_sc_hd__nand2_1
*I *450:B I *D sky130_fd_sc_hd__or2_1
*I *468:A2 I *D sky130_fd_sc_hd__a311o_1
*I *449:Y O *D sky130_fd_sc_hd__xnor2_1
*CAP
1 *451:B 0
2 *450:B 0.000118294
3 *468:A2 0
4 *449:Y 0.000294285
5 *61:22 0.000159005
6 *61:12 0.000380284
7 *61:8 0.000397269
8 *450:B *62:10 0.000106277
9 *450:B *64:10 0.000144501
10 *61:8 *122:147 2.02872e-05
11 *61:12 *452:B1_N 5.50106e-05
12 *61:12 *122:147 9.41704e-05
13 *61:22 *144:22 0.000123729
14 *450:A *450:B 2.75811e-05
15 *451:A *61:8 1.24376e-05
16 *451:A *61:12 4.94041e-05
17 *451:A *61:22 1.9956e-05
18 *60:35 *450:B 1.5769e-05
19 *60:35 *61:12 2.79068e-05
20 *60:35 *61:22 1.28818e-05
21 *60:41 *61:22 0.000187996
*RES
1 *449:Y *61:8 27.8057 
2 *61:8 *61:12 2.54268 
3 *61:12 *61:22 33.9616 
4 *61:22 *468:A2 23 
5 *61:12 *450:B 26.4852 
6 *61:8 *451:B 23 
*END

*D_NET *62 0.000741541
*CONN
*I *452:A1 I *D sky130_fd_sc_hd__a21bo_1
*I *450:X O *D sky130_fd_sc_hd__or2_1
*CAP
1 *452:A1 0
2 *450:X 0.000173486
3 *62:10 0.000173486
4 *450:A *62:10 0.000288292
5 *450:B *62:10 0.000106277
*RES
1 *450:X *62:10 27.9507 
2 *62:10 *452:A1 23 
*END

*D_NET *63 0.0021566
*CONN
*I *459:A2 I *D sky130_fd_sc_hd__a31o_1
*I *458:A2 I *D sky130_fd_sc_hd__a21oi_1
*I *452:A2 I *D sky130_fd_sc_hd__a21bo_1
*I *451:Y O *D sky130_fd_sc_hd__nand2_1
*CAP