*SPEF "ieee 1481-1999"
*DESIGN "stdp"
*DATE "11:11:11 Fri 11 11, 1111"
*VENDOR "OpenRCX"
*PROGRAM "Parallel Extraction"
*VERSION "1.0"
*DESIGN_FLOW "NAME_SCOPE LOCAL" "PIN_CAP NONE"
*DIVIDER /
*DELIMITER :
*BUS_DELIMITER []
*T_UNIT 1 NS
*C_UNIT 1 PF
*R_UNIT 1 OHM
*L_UNIT 1 HENRY

*NAME_MAP
*3 clk
*4 spk_post
*5 spk_pre
*6 time_step[0]
*7 time_step[1]
*8 time_step[2]
*9 time_step[3]
*10 time_step[4]
*11 time_step[5]
*12 time_step[6]
*13 time_step[7]
*14 weight_after[0]
*15 weight_after[1]
*16 weight_after[2]
*17 weight_after[3]
*18 weight_after[4]
*19 weight_after[5]
*20 weight_after[6]
*21 weight_after[7]
*22 weight_before[0]
*23 weight_before[1]
*24 weight_before[2]
*25 weight_before[3]
*26 weight_before[4]
*27 weight_before[5]
*28 weight_before[6]
*29 weight_before[7]
*30 _000_
*31 _001_
*32 _002_
*33 _003_
*34 _004_
*35 _005_
*36 _006_
*37 _007_
*38 _008_
*39 _009_
*40 _010_
*41 _011_
*42 _012_
*43 _013_
*44 _014_
*45 _015_
*46 _016_
*47 _017_
*48 _018_
*49 _019_
*50 _020_
*51 _021_
*52 _022_
*53 _023_
*54 _024_
*55 _025_
*56 _026_
*57 _027_
*58 _028_
*59 _029_
*60 _030_
*61 _031_
*62 _032_
*63 _033_
*64 _034_
*65 _035_
*66 _036_
*67 _037_
*68 _038_
*69 _039_
*70 _040_
*71 _041_
*72 _042_
*73 _043_
*74 _044_
*75 _045_
*76 _046_
*77 _047_
*78 _048_
*79 _049_
*80 _050_
*81 _051_
*82 _052_
*83 _053_
*84 _054_
*85 _055_
*86 _056_
*87 _057_
*88 _058_
*89 _059_
*90 _060_
*91 _061_
*92 _062_
*93 _063_
*94 _064_
*95 _065_
*96 _066_
*97 _067_
*98 _068_
*99 _069_
*100 _070_
*101 _071_
*102 _072_
*103 _073_
*104 _074_
*105 _075_
*106 _076_
*107 _077_
*108 _078_
*109 _079_
*110 _080_
*111 _081_
*112 _082_
*113 _083_
*114 _084_
*115 _085_
*116 _086_
*117 _087_
*118 _088_
*119 _089_
*120 _090_
*121 _091_
*122 _092_
*123 _093_
*124 _094_
*125 _095_
*126 _096_
*127 clknet_0_clk
*128 clknet_1_0__leaf_clk
*129 clknet_1_1__leaf_clk
*130 net1
*131 net10
*132 net11
*133 net12
*134 net13
*135 net14
*136 net15
*137 net16
*138 net17
*139 net18
*140 net19
*141 net2
*142 net20
*143 net21
*144 net22
*145 net23
*146 net24
*147 net25
*148 net26
*149 net27
*150 net28
*151 net29
*152 net3
*153 net30
*154 net31
*155 net32
*156 net33
*157 net34
*158 net35
*159 net36
*160 net37
*161 net38
*162 net39
*163 net4
*164 net40
*165 net41
*166 net42
*167 net43
*168 net44
*169 net45
*170 net46
*171 net47
*172 net48
*173 net5
*174 net6
*175 net7
*176 net8
*177 net9
*178 spks_cnt\[0\]
*179 spks_cnt\[1\]
*180 time_step_post\[0\]
*181 time_step_post\[1\]
*182 time_step_post\[2\]
*183 time_step_post\[3\]
*184 time_step_post\[4\]
*185 time_step_post\[5\]
*186 time_step_post\[6\]
*187 time_step_post\[7\]
*188 time_step_pre\[0\]
*189 time_step_pre\[1\]
*190 time_step_pre\[2\]
*191 time_step_pre\[3\]
*192 time_step_pre\[4\]
*193 time_step_pre\[5\]
*194 time_step_pre\[6\]
*195 time_step_pre\[7\]
*196 FILLER_0_0_108
*197 FILLER_0_0_14
*198 FILLER_0_0_18
*199 FILLER_0_0_3
*200 FILLER_0_0_54
*201 FILLER_0_0_7
*202 FILLER_0_0_85
*203 FILLER_0_10_105
*204 FILLER_0_10_15
*205 FILLER_0_10_27
*206 FILLER_0_10_29
*207 FILLER_0_10_3
*208 FILLER_0_10_83
*209 FILLER_0_10_85
*210 FILLER_0_11_101
*211 FILLER_0_11_22
*212 FILLER_0_11_28
*213 FILLER_0_11_43
*214 FILLER_0_11_52
*215 FILLER_0_11_73
*216 FILLER_0_11_81
*217 FILLER_0_12_109
*218 FILLER_0_12_23
*219 FILLER_0_12_27
*220 FILLER_0_12_29
*221 FILLER_0_12_3
*222 FILLER_0_12_43
*223 FILLER_0_12_64
*224 FILLER_0_12_85
*225 FILLER_0_13_106
*226 FILLER_0_13_3
*227 FILLER_0_13_44
*228 FILLER_0_13_63
*229 FILLER_0_13_74
*230 FILLER_0_13_86
*231 FILLER_0_14_101
*232 FILLER_0_14_15
*233 FILLER_0_14_19
*234 FILLER_0_14_3
*235 FILLER_0_14_37
*236 FILLER_0_14_45
*237 FILLER_0_14_55
*238 FILLER_0_14_61
*239 FILLER_0_14_78
*240 FILLER_0_14_85
*241 FILLER_0_14_97
*242 FILLER_0_15_109
*243 FILLER_0_15_17
*244 FILLER_0_15_28
*245 FILLER_0_15_6
*246 FILLER_0_15_78
*247 FILLER_0_15_86
*248 FILLER_0_16_3
*249 FILLER_0_17_109
*250 FILLER_0_17_3
*251 FILLER_0_17_30
*252 FILLER_0_17_34
*253 FILLER_0_17_52
*254 FILLER_0_17_57
*255 FILLER_0_17_77
*256 FILLER_0_17_85
*257 FILLER_0_18_20
*258 FILLER_0_18_43
*259 FILLER_0_18_49
*260 FILLER_0_18_55
*261 FILLER_0_18_57
*262 FILLER_0_18_61
*263 FILLER_0_18_65
*264 FILLER_0_18_76
*265 FILLER_0_18_85
*266 FILLER_0_18_9
*267 FILLER_0_18_93
*268 FILLER_0_18_97
*269 FILLER_0_1_107
*270 FILLER_0_1_12
*271 FILLER_0_1_38
*272 FILLER_0_1_57
*273 FILLER_0_1_86
*274 FILLER_0_1_98
*275 FILLER_0_2_104
*276 FILLER_0_2_15
*277 FILLER_0_2_26
*278 FILLER_0_2_29
*279 FILLER_0_2_3
*280 FILLER_0_2_41
*281 FILLER_0_2_49
*282 FILLER_0_2_63
*283 FILLER_0_2_78
*284 FILLER_0_3_107
*285 FILLER_0_3_3
*286 FILLER_0_3_31
*287 FILLER_0_3_43
*288 FILLER_0_3_52
*289 FILLER_0_3_87
*290 FILLER_0_3_99
*291 FILLER_0_4_109
*292 FILLER_0_4_22
*293 FILLER_0_4_36
*294 FILLER_0_4_42
*295 FILLER_0_4_58
*296 FILLER_0_4_79
*297 FILLER_0_4_83
*298 FILLER_0_4_85
*299 FILLER_0_4_97
*300 FILLER_0_5_107
*301 FILLER_0_5_11
*302 FILLER_0_5_21
*303 FILLER_0_5_3
*304 FILLER_0_5_33
*305 FILLER_0_5_39
*306 FILLER_0_5_54
*307 FILLER_0_5_57
*308 FILLER_0_5_65
*309 FILLER_0_5_77
*310 FILLER_0_5_85
*311 FILLER_0_5_99
*312 FILLER_0_6_100
*313 FILLER_0_6_21
*314 FILLER_0_6_27
*315 FILLER_0_6_29
*316 FILLER_0_6_41
*317 FILLER_0_6_47
*318 FILLER_0_6_59
*319 FILLER_0_6_67
*320 FILLER_0_6_73
*321 FILLER_0_6_81
*322 FILLER_0_6_85
*323 FILLER_0_6_9
*324 FILLER_0_7_101
*325 FILLER_0_7_109
*326 FILLER_0_7_31
*327 FILLER_0_7_50
*328 FILLER_0_7_57
*329 FILLER_0_7_63
*330 FILLER_0_8_23
*331 FILLER_0_8_27
*332 FILLER_0_8_3
*333 FILLER_0_8_37
*334 FILLER_0_8_46
*335 FILLER_0_8_55
*336 FILLER_0_8_66
*337 FILLER_0_9_108
*338 FILLER_0_9_13
*339 FILLER_0_9_3
*340 FILLER_0_9_40
*341 FILLER_0_9_48
*342 FILLER_0_9_80
*343 FILLER_0_9_9
*344 FILLER_0_9_93
*345 PHY_EDGE_ROW_0_Left_19
*346 PHY_EDGE_ROW_0_Right_0
*347 PHY_EDGE_ROW_10_Left_29
*348 PHY_EDGE_ROW_10_Right_10
*349 PHY_EDGE_ROW_11_Left_30
*350 PHY_EDGE_ROW_11_Right_11
*351 PHY_EDGE_ROW_12_Left_31
*352 PHY_EDGE_ROW_12_Right_12
*353 PHY_EDGE_ROW_13_Left_32
*354 PHY_EDGE_ROW_13_Right_13
*355 PHY_EDGE_ROW_14_Left_33
*356 PHY_EDGE_ROW_14_Right_14
*357 PHY_EDGE_ROW_15_Left_34
*358 PHY_EDGE_ROW_15_Right_15
*359 PHY_EDGE_ROW_16_Left_35
*360 PHY_EDGE_ROW_16_Right_16
*361 PHY_EDGE_ROW_17_Left_36
*362 PHY_EDGE_ROW_17_Right_17
*363 PHY_EDGE_ROW_18_Left_37
*364 PHY_EDGE_ROW_18_Right_18
*365 PHY_EDGE_ROW_1_Left_20
*366 PHY_EDGE_ROW_1_Right_1
*367 PHY_EDGE_ROW_2_Left_21
*368 PHY_EDGE_ROW_2_Right_2
*369 PHY_EDGE_ROW_3_Left_22
*370 PHY_EDGE_ROW_3_Right_3
*371 PHY_EDGE_ROW_4_Left_23
*372 PHY_EDGE_ROW_4_Right_4
*373 PHY_EDGE_ROW_5_Left_24
*374 PHY_EDGE_ROW_5_Right_5
*375 PHY_EDGE_ROW_6_Left_25
*376 PHY_EDGE_ROW_6_Right_6
*377 PHY_EDGE_ROW_7_Left_26
*378 PHY_EDGE_ROW_7_Right_7
*379 PHY_EDGE_ROW_8_Left_27
*380 PHY_EDGE_ROW_8_Right_8
*381 PHY_EDGE_ROW_9_Left_28
*382 PHY_EDGE_ROW_9_Right_9
*383 TAP_TAPCELL_ROW_0_38
*384 TAP_TAPCELL_ROW_0_39
*385 TAP_TAPCELL_ROW_0_40
*386 TAP_TAPCELL_ROW_10_54
*387 TAP_TAPCELL_ROW_10_55
*388 TAP_TAPCELL_ROW_11_56
*389 TAP_TAPCELL_ROW_12_57
*390 TAP_TAPCELL_ROW_12_58
*391 TAP_TAPCELL_ROW_13_59
*392 TAP_TAPCELL_ROW_14_60
*393 TAP_TAPCELL_ROW_14_61
*394 TAP_TAPCELL_ROW_15_62
*395 TAP_TAPCELL_ROW_16_63
*396 TAP_TAPCELL_ROW_16_64
*397 TAP_TAPCELL_ROW_17_65
*398 TAP_TAPCELL_ROW_18_66
*399 TAP_TAPCELL_ROW_18_67
*400 TAP_TAPCELL_ROW_18_68
*401 TAP_TAPCELL_ROW_1_41
*402 TAP_TAPCELL_ROW_2_42
*403 TAP_TAPCELL_ROW_2_43
*404 TAP_TAPCELL_ROW_3_44
*405 TAP_TAPCELL_ROW_4_45
*406 TAP_TAPCELL_ROW_4_46
*407 TAP_TAPCELL_ROW_5_47
*408 TAP_TAPCELL_ROW_6_48
*409 TAP_TAPCELL_ROW_6_49
*410 TAP_TAPCELL_ROW_7_50
*411 TAP_TAPCELL_ROW_8_51
*412 TAP_TAPCELL_ROW_8_52
*413 TAP_TAPCELL_ROW_9_53
*414 _097_
*415 _098_
*416 _099_
*417 _100_
*418 _101_
*419 _102_
*420 _103_
*421 _104_
*422 _105_
*423 _106_
*424 _107_
*425 _108_
*426 _109_
*427 _110_
*428 _111_
*429 _112_
*430 _113_
*431 _114_
*432 _115_
*433 _116_
*434 _117_
*435 _118_
*436 _119_
*437 _120_
*438 _121_
*439 _122_
*440 _123_
*441 _124_
*442 _125_
*443 _126_
*444 _127_
*445 _128_
*446 _129_
*447 _130_
*448 _131_
*449 _132_
*450 _133_
*451 _134_
*452 _135_
*453 _136_
*454 _137_
*455 _138_
*456 _139_
*457 _140_
*458 _141_
*459 _142_
*460 _143_
*461 _144_
*462 _145_
*463 _146_
*464 _147_
*465 _148_
*466 _149_
*467 _150_
*468 _151_
*469 _152_
*470 _153_
*471 _154_
*472 _155_
*473 _156_
*474 _157_
*475 _158_
*476 _159_
*477 _160_
*478 _161_
*479 _162_
*480 _163_
*481 _164_
*482 _165_
*483 _166_
*484 _167_
*485 _168_
*486 _169_
*487 _170_
*488 _171_
*489 _172_
*490 _173_
*491 _174_
*492 _175_
*493 _176_
*494 _177_
*495 _178_
*496 _179_
*497 _180_
*498 _181_
*499 _182_
*500 _183_
*501 _184_
*502 _185_
*503 _186_
*504 _187_
*505 _188_
*506 _189_
*507 _190_
*508 _191_
*509 _192_
*510 _193_
*511 _194_
*512 _195_
*513 _196_
*514 _197_
*515 _198_
*516 _199_
*517 _200_
*518 _201_
*519 _202_
*520 _203_
*521 _204_
*522 _205_
*523 _206_
*524 _207_
*525 _208_
*526 _209_
*527 _210_
*528 _211_
*529 _212_
*530 _213_
*531 _214_
*532 _215_
*533 _216_
*534 _217_
*535 _218_
*536 _219_
*537 clkbuf_0_clk
*538 clkbuf_1_0__f_clk
*539 clkbuf_1_1__f_clk
*540 hold1
*541 hold10
*542 hold11
*543 hold12
*544 hold13
*545 hold14
*546 hold15
*547 hold16
*548 hold17
*549 hold18
*550 hold19
*551 hold2
*552 hold20
*553 hold21
*554 hold22
*555 hold3
*556 hold4
*557 hold5
*558 hold6
*559 hold7
*560 hold8
*561 hold9
*562 input1
*563 input10
*564 input11
*565 input12
*566 input13
*567 input14
*568 input15
*569 input16
*570 input17
*571 input18
*572 input2
*573 input3
*574 input4
*575 input5
*576 input6
*577 input7
*578 input8
*579 input9
*580 output19
*581 output20
*582 output21
*583 output22
*584 output23
*585 output24
*586 output25
*587 output26

*PORTS
clk I
spk_post I
spk_pre I
time_step[0] I
time_step[1] I
time_step[2] I
time_step[3] I
time_step[4] I
time_step[5] I
time_step[6] I
time_step[7] I
weight_after[0] O
weight_after[1] O
weight_after[2] O
weight_after[3] O
weight_after[4] O
weight_after[5] O
weight_after[6] O
weight_after[7] O
weight_before[0] I
weight_before[1] I
weight_before[2] I
weight_before[3] I
weight_before[4] I
weight_before[5] I
weight_before[6] I
weight_before[7] I

*D_NET *3 0.00600376
*CONN
*P clk I
*I *537:A I *D sky130_fd_sc_hd__clkbuf_16
*CAP
1 clk 0.00231417
2 *537:A 0
3 *3:15 0.00231417
4 *3:15 *422:A0 9.52477e-05
5 *3:15 *423:A 0
6 *3:15 *426:A0 9.53179e-05
7 *3:15 *431:A 5.66472e-05
8 *3:15 *431:B 5.13097e-05
9 *3:15 *487:S 0.000145662
10 *3:15 *568:A 0
11 *3:15 *577:A 0
12 *3:15 *582:A 0.000462554
13 *3:15 *92:20 0
14 *3:15 *118:12 5.65955e-05
15 *3:15 *141:107 0.000288673
16 *3:15 *186:14 0.00012342
*RES
1 clk *3:15 43.6787 
2 *3:15 *537:A 9.3 
*END

*D_NET *4 0.00062228
*CONN
*P spk_post I
*I *562:A I *D sky130_fd_sc_hd__clkbuf_4
*CAP
1 spk_post 0.00031114
2 *562:A 0.00031114
*RES
1 spk_post *562:A 20.3888 
*END

*D_NET *5 0.0019779
*CONN
*P spk_pre I
*I *572:A I *D sky130_fd_sc_hd__clkbuf_4
*CAP
1 spk_pre 0.000814859
2 *572:A 0.000814859
3 *572:A *568:A 0.00034818
*RES
1 spk_pre *572:A 40.9964 
*END

*D_NET *6 0.000620836
*CONN
*P time_step[0] I
*I *573:A I *D sky130_fd_sc_hd__clkbuf_1
*CAP
1 time_step[0] 0.000310418
2 *573:A 0.000310418
3 *573:A *152:12 0
*RES
1 time_step[0] *573:A 21.4589 
*END

*D_NET *7 0.000662922
*CONN
*P time_step[1] I
*I *574:A I *D sky130_fd_sc_hd__clkbuf_1
*CAP
1 time_step[1] 0.000331461
2 *574:A 0.000331461
3 *574:A *128:28 0
*RES
1 time_step[1] *574:A 21.7625 
*END

*D_NET *8 0.00126866
*CONN
*P time_step[2] I
*I *575:A I *D sky130_fd_sc_hd__clkbuf_1
*CAP
1 time_step[2] 0.000553903
2 *575:A 0.000553903
3 *575:A weight_after[1] 5.33433e-05
4 *575:A *570:A 8.19189e-05
5 *575:A *138:14 2.55889e-05
*RES
1 time_step[2] *575:A 24.7651 
*END

*D_NET *9 0.00148345
*CONN
*P time_step[3] I
*I *576:A I *D sky130_fd_sc_hd__clkbuf_1
*CAP
1 time_step[3] 0.000569847
2 *576:A 0.000569847
3 *576:A *444:A 5.65955e-05
4 *576:A *563:A 5.65955e-05
5 *576:A *565:A 0.000230568
*RES
1 time_step[3] *576:A 25.8714 
*END

*D_NET *10 0.000875314
*CONN
*P time_step[4] I
*I *577:A I *D sky130_fd_sc_hd__clkbuf_1
*CAP
1 time_step[4] 0.000437657
2 *577:A 0.000437657
3 *577:A *582:A 0
4 *3:15 *577:A 0
*RES
1 time_step[4] *577:A 22.3714 
*END

*D_NET *11 0.00129298
*CONN
*P time_step[5] I
*I *578:A I *D sky130_fd_sc_hd__clkbuf_1
*CAP
1 time_step[5] 0.000646489
2 *578:A 0.000646489
*RES
1 time_step[5] *578:A 20.5932 
*END

*D_NET *12 0.00109841
*CONN
*P time_step[6] I
*I *579:A I *D sky130_fd_sc_hd__buf_1
*CAP
1 time_step[6] 0.000477415
2 *579:A 0.000477415
3 *579:A *444:A 0.000143582
*RES
1 time_step[6] *579:A 23.5679 
*END

*D_NET *13 0.00154159
*CONN
*P time_step[7] I
*I *563:A I *D sky130_fd_sc_hd__clkbuf_1
*CAP
1 time_step[7] 0.000706938
2 *563:A 0.000706938
3 *563:A *444:A 7.11153e-05
4 *576:A *563:A 5.65955e-05
*RES
1 time_step[7] *563:A 26.6069 
*END

*D_NET *14 0.000755455
*CONN
*P weight_after[0] O
*I *580:X O *D sky130_fd_sc_hd__clkbuf_4
*CAP
1 weight_after[0] 0.000377728
2 *580:X 0.000377728
3 weight_after[0] *417:A 0
*RES
1 *580:X weight_after[0] 21.5661 
*END

*D_NET *15 0.000960989
*CONN
*P weight_after[1] O
*I *581:X O *D sky130_fd_sc_hd__clkbuf_4
*CAP
1 weight_after[1] 0.000453823
2 *581:X 0.000453823
3 *575:A weight_after[1] 5.33433e-05
*RES
1 *581:X weight_after[1] 22.2464 
*END

*D_NET *16 0.00112659
*CONN
*P weight_after[2] O
*I *582:X O *D sky130_fd_sc_hd__clkbuf_4
*CAP
1 weight_after[2] 0.000563297
2 *582:X 0.000563297
*RES
1 *582:X weight_after[2] 24.2464 
*END

*D_NET *17 0.00175196
*CONN
*P weight_after[3] O
*I *583:X O *D sky130_fd_sc_hd__clkbuf_4
*CAP
1 weight_after[3] 0.000875982
2 *583:X 0.000875982
*RES
1 *583:X weight_after[3] 29.8179 
*END

*D_NET *18 0.000700258
*CONN
*P weight_after[4] O
*I *584:X O *D sky130_fd_sc_hd__clkbuf_4
*CAP
1 weight_after[4] 0.000350129
2 *584:X 0.000350129
*RES
1 *584:X weight_after[4] 20.6929 
*END

*D_NET *19 0.00196749
*CONN
*P weight_after[5] O
*I *585:X O *D sky130_fd_sc_hd__clkbuf_4
*CAP
1 weight_after[5] 0.00086458
2 *585:X 0.00086458
3 weight_after[5] *444:B 5.08914e-05
4 weight_after[5] *560:A 0.000180511
5 weight_after[5] *570:A 0
6 weight_after[5] *585:A 6.92966e-06
*RES
1 *585:X weight_after[5] 28.2464 
*END

*D_NET *20 0.00152019
*CONN
*P weight_after[6] O
*I *586:X O *D sky130_fd_sc_hd__clkbuf_4
*CAP
1 weight_after[6] 0.000638063
2 *586:X 0.000638063
3 weight_after[6] *493:A1 9.83388e-05
4 weight_after[6] *586:A 8.09004e-05
5 weight_after[6] *99:14 6.48204e-05
*RES
1 *586:X weight_after[6] 20.6637 
*END

*D_NET *21 0.00121493
*CONN
*P weight_after[7] O
*I *587:X O *D sky130_fd_sc_hd__clkbuf_4
*CAP
1 weight_after[7] 0.000501918
2 *587:X 0.000501918
3 weight_after[7] *528:D 2.44318e-05
4 weight_after[7] *587:A 0.000186662
*RES
1 *587:X weight_after[7] 22.8714 
*END

*D_NET *22 0.000526847
*CONN
*P weight_before[0] I
*I *564:A I *D sky130_fd_sc_hd__clkbuf_1
*CAP
1 weight_before[0] 0.000263424
2 *564:A 0.000263424
*RES
1 weight_before[0] *564:A 20.0132 
*END

*D_NET *23 0.000946181
*CONN
*P weight_before[1] I
*I *565:A I *D sky130_fd_sc_hd__clkbuf_1
*CAP
1 weight_before[1] 0.000357807
2 *565:A 0.000357807
3 *576:A *565:A 0.000230568
*RES
1 weight_before[1] *565:A 22.5667 
*END

*D_NET *24 0.00090551
*CONN
*P weight_before[2] I
*I *566:A I *D sky130_fd_sc_hd__clkbuf_1
*CAP
1 weight_before[2] 0.000452755
2 *566:A 0.000452755
*RES
1 weight_before[2] *566:A 22.8714 
*END

*D_NET *25 0.000907224
*CONN
*P weight_before[3] I
*I *567:A I *D sky130_fd_sc_hd__clkbuf_1
*CAP
1 weight_before[3] 0.000453612
2 *567:A 0.000453612
*RES
1 weight_before[3] *567:A 22.8714 
*END

*D_NET *26 0.00176958
*CONN
*P weight_before[4] I
*I *568:A I *D sky130_fd_sc_hd__clkbuf_1
*CAP
1 weight_before[4] 0.000476847
2 *568:A 0.000476847
3 *568:A *471:B2 0.000314921
4 *568:A *493:A1 0.000152784
5 *568:A *582:A 0
6 *572:A *568:A 0.00034818
7 *3:15 *568:A 0
*RES
1 weight_before[4] *568:A 26.3179 
*END

*D_NET *27 0.000554915
*CONN
*P weight_before[5] I
*I *569:A I *D sky130_fd_sc_hd__clkbuf_1
*CAP
1 weight_before[5] 0.000277458
2 *569:A 0.000277458
3 *569:A *138:14 0
*RES
1 weight_before[5] *569:A 19.0336 
*END

*D_NET *28 0.00241658
*CONN
*P weight_before[6] I
*I *570:A I *D sky130_fd_sc_hd__buf_1
*CAP
1 weight_before[6] 0.00111731
2 *570:A 0.00111731
3 *570:A *138:14 0.000100037
4 weight_after[5] *570:A 0
5 *575:A *570:A 8.19189e-05
*RES
1 weight_before[6] *570:A 31.1146 
*END

*D_NET *29 0.000761718
*CONN
*P weight_before[7] I
*I *571:A I *D sky130_fd_sc_hd__clkbuf_1
*CAP
1 weight_before[7] 0.000380859
2 *571:A 0.000380859
3 *571:A *491:B1 0
*RES
1 weight_before[7] *571:A 21.8352 
*END

*D_NET *30 0.000295083
*CONN
*I *511:D I *D sky130_fd_sc_hd__dfxtp_1
*I *415:X O *D sky130_fd_sc_hd__clkbuf_1
*CAP
1 *511:D 0.000126428
2 *415:X 0.000126428
3 *511:D *415:A 1.32293e-05
4 *511:D *129:135 2.89976e-05
*RES
1 *415:X *511:D 20.658 
*END

*D_NET *31 0.000375447
*CONN
*I *512:D I *D sky130_fd_sc_hd__dfxtp_1
*I *417:X O *D sky130_fd_sc_hd__clkbuf_1
*CAP
1 *512:D 0.000147391
2 *417:X 0.000147391
3 *512:D *417:A 1.24368e-05
4 *512:D *512:CLK 5.49995e-05
5 *512:D *128:71 1.32293e-05
*RES
1 *417:X *512:D 21.4393 
*END

*D_NET *32 0.00127029
*CONN
*I *513:D I *D sky130_fd_sc_hd__dfxtp_1
*I *419:X O *D sky130_fd_sc_hd__clkbuf_1
*CAP
1 *513:D 0.000374833
2 *419:X 0.000374833
3 *513:D *419:A 2.83425e-05
4 *513:D *513:CLK 8.05327e-05
5 *513:D *558:A 0.000218163
6 *513:D *84:12 2.86212e-05
7 *513:D *122:99 1.95011e-05
8 *513:D *129:101 2.80728e-05
9 *513:D *129:118 0.000117392
*RES
1 *419:X *513:D 34.7295 
*END

*D_NET *33 0.000350393
*CONN
*I *514:D I *D sky130_fd_sc_hd__dfxtp_1
*I *421:X O *D sky130_fd_sc_hd__clkbuf_1
*CAP
1 *514:D 0.000146377
2 *421:X 0.000146377
3 *514:D *455:B 2.64731e-05
4 *514:D *456:A_N 3.11667e-05
*RES
1 *421:X *514:D 30.4036 
*END

*D_NET *34 0.000915971
*CONN
*I *515:D I *D sky130_fd_sc_hd__dfxtp_1
*I *423:X O *D sky130_fd_sc_hd__clkbuf_1
*CAP
1 *515:D 0.000254581
2 *423:X 0.000254581
3 *515:D *423:A 0.000101422
4 *515:D *493:A1 5.49544e-05
5 *515:D *503:A1 9.76435e-06
6 *515:D *515:CLK 3.39603e-05
7 *515:D *128:122 8.69855e-05
8 *515:D *141:69 0.000119722
*RES
1 *423:X *515:D 32.8321 
*END

*D_NET *35 0.000342525
*CONN
*I *516:D I *D sky130_fd_sc_hd__dfxtp_1
*I *425:X O *D sky130_fd_sc_hd__clkbuf_1
*CAP
1 *516:D 0.000133554
2 *425:X 0.000133554
3 *516:D *506:A 2.04681e-05
4 *516:D *128:28 5.49489e-05
*RES
1 *425:X *516:D 21.0107 
*END

*D_NET *36 0.000567949
*CONN
*I *517:D I *D sky130_fd_sc_hd__dfxtp_1
*I *427:X O *D sky130_fd_sc_hd__clkbuf_1
*CAP
1 *517:D 0.000207755
2 *427:X 0.000207755
3 *517:D *144:24 0.00015244
*RES
1 *427:X *517:D 31.0688 
*END

*D_NET *37 0.000265096
*CONN
*I *518:D I *D sky130_fd_sc_hd__dfxtp_1
*I *429:X O *D sky130_fd_sc_hd__clkbuf_1
*CAP
1 *518:D 6.82741e-05
2 *429:X 6.82741e-05
3 *518:D *510:A 1.74816e-05
4 *518:D *556:A 9.15842e-06
5 *518:D *582:A 0.000101908
*RES
1 *429:X *518:D 29.1045 
*END

*D_NET *38 0.00213599
*CONN
*I *519:D I *D sky130_fd_sc_hd__dfxtp_1
*I *433:X O *D sky130_fd_sc_hd__clkbuf_1
*CAP
1 *519:D 0.000833515
2 *433:X 0.000833515
3 *519:D *430:B 5.99191e-05
4 *519:D *435:A1 0.000135028
5 *519:D *435:B1 2.28598e-05
6 *519:D *520:D 8.18783e-05
7 *519:D *122:10 0.000125448
8 *519:D *178:8 4.38244e-05
*RES
1 *433:X *519:D 41.533 
*END

*D_NET *39 0.00236378
*CONN
*I *520:D I *D sky130_fd_sc_hd__dfxtp_1
*I *435:X O *D sky130_fd_sc_hd__o21a_1
*CAP
1 *520:D 0.000464342
2 *435:X 0.000464342
3 *520:D *418:S 7.02026e-05
4 *520:D *432:S 2.84398e-05
5 *520:D *435:A2 0.00031557
6 *520:D *435:B1 0.000566382
7 *520:D *538:A 3.18747e-05
8 *520:D *60:22 7.88047e-05
9 *520:D *129:10 0.00018372
10 *520:D *178:19 7.82217e-05
11 *519:D *520:D 8.18783e-05
*RES
1 *435:X *520:D 39.8991 
*END

*D_NET *40 0.000720944
*CONN
*I *521:D I *D sky130_fd_sc_hd__dfxtp_1
*I *441:X O *D sky130_fd_sc_hd__o21ba_1
*CAP
1 *521:D 0.000207027
2 *441:X 0.000207027
3 *521:D *538:A 5.92441e-05
4 *521:D *553:A 3.69047e-06
5 *521:D *580:A 3.20441e-05
6 *521:D *128:84 8.7892e-05
7 *521:D *137:28 0.000124019
*RES
1 *441:X *521:D 31.4571 
*END

*D_NET *41 0.000485882
*CONN
*I *522:D I *D sky130_fd_sc_hd__dfxtp_1
*I *446:X O *D sky130_fd_sc_hd__clkbuf_1
*CAP
1 *522:D 0.000129531
2 *446:X 0.000129531
3 *522:D *581:A 0.000147885
4 *522:D *138:14 7.89362e-05
*RES
1 *446:X *522:D 30.4616 
*END

*D_NET *42 0.000766881
*CONN
*I *523:D I *D sky130_fd_sc_hd__dfxtp_1
*I *453:X O *D sky130_fd_sc_hd__o22a_1
*CAP
1 *523:D 0.000142065
2 *453:X 0.000142065
3 *523:D *129:23 2.37867e-05
4 *523:D *129:29 0.000138985
5 *523:D *144:24 0.000147784
6 *523:D *179:31 0.000172196
*RES
1 *453:X *523:D 31.6045 
*END

*D_NET *43 0.00026336
*CONN
*I *524:D I *D sky130_fd_sc_hd__dfxtp_1
*I *462:X O *D sky130_fd_sc_hd__clkbuf_1
*CAP
1 *524:D 0.000111814
2 *462:X 0.000111814
3 *524:D *462:A 3.9733e-05
*RES
1 *462:X *524:D 29.6402 
*END

*D_NET *44 0.00115945
*CONN
*I *525:D I *D sky130_fd_sc_hd__dfxtp_1
*I *471:X O *D sky130_fd_sc_hd__o22a_1
*CAP
1 *525:D 0.000209739
2 *471:X 0.000209739
3 *525:D *471:B1 3.4247e-05
4 *525:D *525:CLK 1.02301e-05
5 *525:D *583:A 0.000291845
6 *525:D *128:113 0.000111969
7 *525:D *128:122 0.000235916
8 *525:D *144:24 5.5764e-05
*RES
1 *471:X *525:D 35.1714 
*END

*D_NET *45 0.000368207
*CONN
*I *526:D I *D sky130_fd_sc_hd__dfxtp_1
*I *477:X O *D sky130_fd_sc_hd__clkbuf_1
*CAP
1 *526:D 0.00011516
2 *477:X 0.00011516
3 *526:D *526:CLK 0.000102583
4 *526:D *138:14 3.5304e-05
*RES
1 *477:X *526:D 29.9259 
*END

*D_NET *46 0.000353771
*CONN
*I *527:D I *D sky130_fd_sc_hd__dfxtp_1
*I *488:X O *D sky130_fd_sc_hd__clkbuf_1
*CAP
1 *527:D 0.000120437
2 *488:X 0.000120437
3 *527:D *487:S 1.87331e-05
4 *527:D *488:A 9.41642e-05
*RES
1 *488:X *527:D 20.658 
*END

*D_NET *47 0.000857796
*CONN
*I *528:D I *D sky130_fd_sc_hd__dfxtp_1
*I *494:X O *D sky130_fd_sc_hd__clkbuf_1
*CAP
1 *528:D 0.000152566
2 *494:X 0.000152566
3 *528:D *494:A 0.000254756
4 *528:D *584:A 6.78808e-06
5 *528:D *587:A 0.000266687
6 weight_after[7] *528:D 2.44318e-05
*RES
1 *494:X *528:D 23.8857 
*END

*D_NET *48 0.000603307
*CONN
*I *529:D I *D sky130_fd_sc_hd__dfxtp_1
*I *496:X O *D sky130_fd_sc_hd__clkbuf_1
*CAP
1 *529:D 0.0001606
2 *496:X 0.0001606
3 *529:D *415:A 2.48421e-05
4 *529:D *529:CLK 8.82684e-05
5 *529:D *137:28 2.26788e-05
6 *529:D *138:14 0.000146318
*RES
1 *496:X *529:D 31.5821 
*END

*D_NET *49 0.000323409
*CONN
*I *530:D I *D sky130_fd_sc_hd__dfxtp_1
*I *498:X O *D sky130_fd_sc_hd__clkbuf_1
*CAP
1 *530:D 8.44785e-05
2 *498:X 8.44785e-05
3 *530:D *530:CLK 3.67279e-06
4 *530:D *138:14 0.00015078
*RES
1 *498:X *530:D 29.7116 
*END

*D_NET *50 0.000417066
*CONN
*I *531:D I *D sky130_fd_sc_hd__dfxtp_1
*I *500:X O *D sky130_fd_sc_hd__clkbuf_1
*CAP
1 *531:D 0.000130322
2 *500:X 0.000130322
3 *531:D *419:A 0.000156422
*RES
1 *500:X *531:D 20.783 
*END

*D_NET *51 0.00133957
*CONN
*I *532:D I *D sky130_fd_sc_hd__dfxtp_1
*I *502:X O *D sky130_fd_sc_hd__clkbuf_1
*CAP
1 *532:D 0.000410454
2 *502:X 0.000410454
3 *532:D *501:A1 7.74068e-05
4 *532:D *501:S 0.000172502
5 *532:D *532:CLK 0.000143453
6 *532:D *541:A 0.000125298
*RES
1 *502:X *532:D 34.8366 
*END

*D_NET *52 0.000512693
*CONN
*I *533:D I *D sky130_fd_sc_hd__dfxtp_1
*I *504:X O *D sky130_fd_sc_hd__clkbuf_1
*CAP
1 *533:D 0.000159144
2 *504:X 0.000159144
3 *533:D *504:A 0.000176924
4 *533:D *548:A 1.74816e-05
*RES
1 *504:X *533:D 30.8545 
*END

*D_NET *53 0.000218666
*CONN
*I *534:D I *D sky130_fd_sc_hd__dfxtp_1
*I *506:X O *D sky130_fd_sc_hd__clkbuf_1
*CAP
1 *534:D 5.72343e-05
2 *506:X 5.72343e-05
3 *534:D *506:A 5.09908e-05
4 *534:D *128:28 5.32071e-05
*RES
1 *506:X *534:D 29.1045 
*END

*D_NET *54 0.00178419
*CONN
*I *535:D I *D sky130_fd_sc_hd__dfxtp_1
*I *508:X O *D sky130_fd_sc_hd__clkbuf_1
*CAP
1 *535:D 0.000368344
2 *508:X 0.000368344
3 *535:D *507:A1 9.67754e-05
4 *535:D *543:A 0.000309706
5 *535:D *561:A 7.17807e-05
6 *535:D *130:24 1.38323e-05
7 *535:D *130:30 0.000483624
8 *535:D *141:99 7.17807e-05
*RES
1 *508:X *535:D 37.5152 
*END

*D_NET *55 0.000806178
*CONN
*I *536:D I *D sky130_fd_sc_hd__dfxtp_1
*I *510:X O *D sky130_fd_sc_hd__clkbuf_1
*CAP
1 *536:D 0.000230482
2 *510:X 0.000230482
3 *536:D *431:A 0
4 *536:D *536:CLK 0.000227539
5 *536:D *582:A 5.10937e-05
6 *536:D *129:35 6.65808e-05
*RES
1 *510:X *536:D 32.8679 
*END

*D_NET *56 0.00276575
*CONN
*I *444:B I *D sky130_fd_sc_hd__or2_1
*I *443:X O *D sky130_fd_sc_hd__xor2_1
*CAP
1 *444:B 0.000617526
2 *443:X 0.000617526
3 *444:B *418:A1 0.00011427
4 *444:B *445:A1 0.000221174
5 *444:B *499:S 0
6 *444:B *544:A 0
7 *444:B *558:A 0.000685198
8 *444:B *585:A 9.84729e-05
9 *444:B *84:12 0.00025951
10 *444:B *180:28 0.000101178
11 weight_after[5] *444:B 5.08914e-05
*RES
1 *443:X *444:B 44.7964 
*END

*D_NET *57 0.00214618
*CONN
*I *445:A1 I *D sky130_fd_sc_hd__mux2_1
*I *444:X O *D sky130_fd_sc_hd__or2_1
*CAP
1 *445:A1 0.000616813
2 *444:X 0.000616813
3 *445:A1 *444:A 9.9487e-05
4 *445:A1 *445:A0 0.000139344
5 *445:A1 *585:A 5.50052e-05
6 *445:A1 *173:18 0.000397546
7 *444:B *445:A1 0.000221174
*RES
1 *444:X *445:A1 38.35 
*END

*D_NET *58 0.000986552
*CONN
*I *446:A I *D sky130_fd_sc_hd__clkbuf_1
*I *445:X O *D sky130_fd_sc_hd__mux2_1
*CAP
1 *446:A 0.000323742
2 *445:X 0.000323742
3 *446:A *560:A 0.000143375
4 *446:A *581:A 0.000118696
5 *446:A *138:14 7.6997e-05
*RES
1 *445:X *446:A 32.6536 
*END

*D_NET *59 0.00110346
*CONN
*I *448:B1 I *D sky130_fd_sc_hd__a21o_1
*I *447:X O *D sky130_fd_sc_hd__and2b_1
*CAP
1 *448:B1 0.000126603
2 *447:X 0.000126603
3 *448:B1 *443:B 7.96661e-05
4 *448:B1 *448:A2 5.33005e-05
5 *448:B1 *60:22 6.05161e-06
6 *448:B1 *126:8 0.000273815
7 *448:B1 *137:28 0.000437419
*RES
1 *447:X *448:B1 32.9214 
*END

*D_NET *60 0.0053036
*CONN
*I *450:A I *D sky130_fd_sc_hd__or2_1
*I *468:A1 I *D sky130_fd_sc_hd__a311o_1
*I *451:A I *D sky130_fd_sc_hd__nand2_1
*I *448:X O *D sky130_fd_sc_hd__a21o_1
*CAP
1 *450:A 0.000103105
2 *468:A1 0.000114012
3 *451:A 5.50232e-05
4 *448:X 0.00100385
5 *60:35 0.000285453
6 *60:22 0.00112721
7 *450:A *450:B 2.75452e-05
8 *450:A *452:A1 0.000281085
9 *450:A *63:6 0.000140088
10 *450:A *63:23 0.000172964
11 *451:A *468:A2 1.94601e-05
12 *451:A *61:8 1.24368e-05
13 *451:A *61:12 4.85098e-05
14 *468:A1 *452:A2 9.69119e-06
15 *468:A1 *468:A2 0.000170661
16 *468:A1 *468:C1 1.41706e-05
17 *468:A1 *63:23 0
18 *468:A1 *144:24 1.31516e-05
19 *60:22 *418:S 0
20 *60:22 *436:A_N 0.000182179
21 *60:22 *436:B 4.21415e-05
22 *60:22 *440:A_N 0.000188275
23 *60:22 *440:C 1.1113e-05
24 *60:22 *440:D 0.000157026
25 *60:22 *441:B1_N 9.83388e-05
26 *60:22 *461:S 0.000105696
27 *60:22 *78:16 0.000168217
28 *60:22 *121:16 0.000104126
29 *60:22 *122:8 0.000139202
30 *60:22 *122:133 3.21632e-05
31 *60:22 *137:28 8.43535e-06
32 *60:22 *178:19 0.000148514
33 *60:35 *450:B 1.56e-05
34 *60:35 *468:A2 1.28809e-05
35 *60:35 *61:12 2.75855e-05
36 *60:35 *63:6 0.000178847
37 *448:B1 *60:22 6.05161e-06
38 *520:D *60:22 7.88047e-05
*RES
1 *448:X *60:22 38.8714 
2 *60:22 *451:A 11.1036 
3 *60:22 *60:35 2.17857 
4 *60:35 *468:A1 20.8536 
5 *60:35 *450:A 13.4429 
*END

*D_NET *61 0.00201698
*CONN
*I *451:B I *D sky130_fd_sc_hd__nand2_1
*I *450:B I *D sky130_fd_sc_hd__or2_1
*I *468:A2 I *D sky130_fd_sc_hd__a311o_1
*I *449:Y O *D sky130_fd_sc_hd__xnor2_1
*CAP
1 *451:B 0
2 *450:B 0.000106503
3 *468:A2 0.000123845
4 *449:Y 0.000260883
5 *61:12 0.000315505
6 *61:8 0.000346041
7 *450:B *452:A1 0.000101859
8 *450:B *453:B1 0.000141734
9 *468:A2 *144:24 0.000116657
10 *61:8 *461:S 1.98839e-05
11 *61:12 *452:B1_N 5.52302e-05
12 *61:12 *461:S 9.41642e-05
13 *450:A *450:B 2.75452e-05
14 *451:A *468:A2 1.94601e-05
15 *451:A *61:8 1.24368e-05
16 *451:A *61:12 4.85098e-05
17 *468:A1 *468:A2 0.000170661
18 *60:35 *450:B 1.56e-05
19 *60:35 *468:A2 1.28809e-05
20 *60:35 *61:12 2.75855e-05
*RES
1 *449:Y *61:8 13.4429 
2 *61:8 *61:12 2.19196 
3 *61:12 *468:A2 21.7152 
4 *61:12 *450:B 12.3045 
5 *61:8 *451:B 9.3 
*END

*D_NET *62 0.000700017
*CONN
*I *452:A1 I *D sky130_fd_sc_hd__a21bo_1
*I *450:X O *D sky130_fd_sc_hd__or2_1
*CAP
1 *452:A1 0.000158536
2 *450:X 0.000158536
3 *450:A *452:A1 0.000281085
4 *450:B *452:A1 0.000101859
*RES
1 *450:X *452:A1 22.8679 
*END

*D_NET *63 0.00196272
*CONN
*I *459:A2 I *D sky130_fd_sc_hd__a31o_1
*I *458:A2 I *D sky130_fd_sc_hd__a21oi_1
*I *452:A2 I *D sky130_fd_sc_hd__a21bo_1
*I *451:Y O *D sky130_fd_sc_hd__nand2_1
*CAP
1 *459:A2 9.18125e-05
2 *458:A2 0
3 *452:A2 6.29953e-05
4 *451:Y 0.000227595
5 *63:23 0.00033609
6 *63:6 0.000534868
7 *452:A2 *144:24 0
8 *459:A2 *456:B 0
9 *459:A2 *457:A 0.000112764
10 *459:A2 *457:B 5.48781e-05
11 *459:A2 *459:A1 4.01319e-05
12 *459:A2 *129:60 0
13 *63:23 *129:60 0
14 *450:A *63:6 0.000140088
15 *450:A *63:23 0.000172964
16 *468:A1 *452:A2 9.69119e-06
17 *468:A1 *63:23 0
18 *60:35 *63:6 0.000178847
*RES
1 *451:Y *63:6 12.3 
2 *63:6 *452:A2 19.3357 
3 *63:6 *63:23 8.21429 
4 *63:23 *458:A2 13.8 
5 *63:23 *459:A2 16.05 
*END

*D_NET *64 0.000571637
*CONN
*I *453:B1 I *D sky130_fd_sc_hd__o22a_1
*I *452:X O *D sky130_fd_sc_hd__a21bo_1
*CAP
1 *453:B1 0.000192541
2 *452:X 0.000192541
3 *453:B1 *144:24 4.48206e-05
4 *450:B *453:B1 0.000141734
*RES
1 *452:X *453:B1 30.6 
*END

*D_NET *65 0.00203039
*CONN
*I *467:A I *D sky130_fd_sc_hd__nor2_1
*I *458:A1 I *D sky130_fd_sc_hd__a21oi_1
*I *459:A1 I *D sky130_fd_sc_hd__a31o_1
*I *454:X O *D sky130_fd_sc_hd__or2b_1
*CAP
1 *467:A 6.14925e-05
2 *458:A1 0
3 *459:A1 0.000179585
4 *454:X 0.000351669
5 *65:27 8.48209e-05
6 *65:8 0.000554582
7 *459:A1 *457:B 5.48781e-05
8 *459:A1 *459:A3 2.59355e-05
9 *459:A1 *459:B1 6.05161e-06
10 *459:A1 *460:B 3.50166e-05
11 *459:A1 *468:C1 5.33005e-05
12 *459:A1 *67:6 9.41642e-05
13 *459:A1 *68:20 0.000155506
14 *467:A *457:A 1.33343e-05
15 *467:A *467:B 1.97695e-05
16 *467:A *468:B1 4.40603e-05
17 *65:8 *460:A 3.47797e-05
18 *65:8 *468:A3 0.000179363
19 *65:8 *468:B1 1.10868e-05
20 *65:27 *468:B1 3.08664e-05
21 *459:A2 *459:A1 4.01319e-05
*RES
1 *454:X *65:8 13.9607 
2 *65:8 *459:A1 22.4607 
3 *65:8 *65:27 0.535714 
4 *65:27 *458:A1 9.3 
5 *65:27 *467:A 10.675 
*END

*D_NET *66 0.00195836
*CONN
*I *467:B I *D sky130_fd_sc_hd__nor2_1
*I *457:A I *D sky130_fd_sc_hd__nor2_1
*I *455:X O *D sky130_fd_sc_hd__and2b_1
*CAP
1 *467:B 2.64608e-05